Đại gia cho thuê máy bay mất 113 phi cơ tại Nga
AerCap Holdings - hãng sở hữu nhiều máy bay nhất thế giới - mất 113 chiếc tại Nga do nước này thu giữ để đáp trả các lệnh trừng phạt.
Hãng cho thuê máy bay AerCap Holdings hôm 18/5 công bố báo cáo tài chính quý I, với khoản lỗ ròng 2 tỷ USD. Việc giới chức Nga thu giữ 113 máy bay và 11 động cơ máy bay khiến AerCap thiệt hại 2,7 tỷ USD trước thuế. Nếu không có sự cố này, hãng sẽ ghi nhận 500 triệu USD lãi.
Dù vậy, các lãnh đạo công ty cho biết quý trước thực ra khá tốt đẹp và họ nhận thấy thời gian tới sẽ sáng sủa hơn khi nhu cầu bay toàn cầu tiếp tục phục hồi sau đại dịch. "Với các mảng kinh doanh hiện tại, chúng tôi nhận thấy nhu cầu đang tăng, các tài sản đang được tận dụng tốt và tài chính của khách hàng cũng cải thiện", CEO Aengus Kelly cho biết. Cổ phiếu AerCap đã tăng 6% trong phiên giao dịch hôm qua.
Trước khi bị Nga thu giữ tài sản, công ty này đã kịp lấy lại 22 máy bay và 3 động cơ. Họ đã nộp yêu cầu bồi thường lên công ty bảo hiểm. Dù vậy, một số hãng bảo hiểm lại đến từ Nga. AerCap cho biết "Thời gian và số tiền bồi thường vẫn chưa chắc chắn".
Công ty hiện sở hữu 1.624 máy bay - nhiều nhất thế giới. Số máy bay bị giữ tại Nga hiện chỉ chiếm chưa đầy 5% giá trị đội bay của AerCap. Richard Aboulafia - Giám đốc AeroDynamic Advisory cho rằng AerCap sẽ dễ dàng vượt qua thiệt hại tài chính này. Kể cả nếu chiến sự kết thúc và các lệnh trừng phạt được gỡ bỏ, trong mắt giới chức hàng không phương Tây, số máy bay này cũng sẽ không còn được hoạt động nữa.
Khi Nga mở chiến dịch quân sự tại Ukraine ngày 24/2, các hãng bay Nga đang vận hành 861 phi cơ. Hơn nửa số đó thuộc về các công ty cho thuê máy bay nước ngoài.
Lệnh trừng phạt của phương Tây yêu cầu các hãng cho thuê quốc tế lấy lại máy bay trong tháng 3. Khoảng 79 chiếc đã được thu hồi. Tuy nhiên, Nga cũng thông báo đã quốc hữu hóa hàng trăm máy bay.